The name of an affected Product: J2EEFAST - v2.7.0
fixed version: J2EEFAST - v2.7.0
Vendor of the product: https://www.j2eefast.com/
The CVE ID for the entry: CVE-2024-35086
A prose description: J2EEFAST v2.7.0 was discovered to contain a SQL injection vulnerability via the findPage function in BpmTaskFromMapper.xml .
Vulnerability Type: SQL injection
Impact: SQL injection
Root Cause:   `findPage` function in BpmTaskFromMapper.xml
 <com.j2eefast.flowable.bpm.controller.ProcessInstanceController: com.j2eefast.common.core.utils.ResponseData list(java.util.Map)>
   <com.j2eefast.flowable.bpm.service.impl.FlowableProcessInstanceServiceImpl: com.j2eefast.common.core.utils.PageUtil findPage(java.util.Map)>
   <com.j2eefast.flowable.bpm.mapper.ProcessInstanceMapper: com.baomidou.mybatisplus.extension.plugins.pagination.Page findPage(com.baomidou.mybatisplus.core.metadata.IPage,java.lang.String,java.lang.String,java.lang.String,java.lang.String,java.lang.String)>